CCO
 OpenBabel08132414593D

  9  8  0  0  0  0  0  0  0  0999 V2000
    1.0233   -0.0634   -0.0775 C   0  0  0  0  0  0  0  0  0  0  0  0
    2.5376   -0.0591   -0.0717 C   0  0  0  0  0  0  0  0  0  0  0  0
    3.0193    0.0181    1.2618 O   0  0  0  0  0  0  0  0  0  0  0  0
    0.6385   -0.1328   -1.0987 H   0  0  0  0  0  0  0  0  0  0  0  0
    0.6313    0.8481    0.3855 H   0  0  0  0  0  0  0  0  0  0  0  0
    0.6378   -0.9074    0.5040 H   0  0  0  0  0  0  0  0  0  0  0  0
    2.9290    0.7925   -0.6366 H   0  0  0  0  0  0  0  0  0  0  0  0
    2.9246   -0.9783   -0.5211 H   0  0  0  0  0  0  0  0  0  0  0  0
    2.6797    0.8429    1.6491 H   0  0  0  0  0  0  0  0  0  0  0  0
  1  2  1  0  0  0  0
  1  4  1  0  0  0  0
  1  5  1  0  0  0  0
  1  6  1  0  0  0  0
  2  3  1  0  0  0  0
  2  7  1  0  0  0  0
  2  8  1  0  0  0  0
  3  9  1  0  0  0  0
M  END
$$$$
C=C
 OpenBabel08132414593D

  6  5  0  0  0  0  0  0  0  0999 V2000
    1.0706    0.0799   -0.0147 C   0  0  0  0  0  0  0  0  0  0  0  0
    2.4064    0.0799   -0.0147 C   0  0  0  0  0  0  0  0  0  0  0  0
    0.5109    0.4731    0.8281 H   0  0  0  0  0  0  0  0  0  0  0  0
    0.5109   -0.3133   -0.8576 H   0  0  0  0  0  0  0  0  0  0  0  0
    2.9661    0.4731    0.8281 H   0  0  0  0  0  0  0  0  0  0  0  0
    2.9661   -0.3133   -0.8576 H   0  0  0  0  0  0  0  0  0  0  0  0
  1  2  2  0  0  0  0
  1  3  1  0  0  0  0
  1  4  1  0  0  0  0
  2  5  1  0  0  0  0
  2  6  1  0  0  0  0
M  END
$$$$
