ligand.pdb
 OpenBabel06132509543D

 40 42  0  0  1  0  0  0  0  0999 V2000
  -15.5710  -21.5380    0.0790 C   0  0  0  0  0  0  0  0  0  0  0  0
  -15.9270  -20.2220   -0.6100 C   0  0  2  0  0  0  0  0  0  0  0  0
  -15.7720  -20.3260   -2.1330 C   0  0  0  0  0  0  0  0  0  0  0  0
  -16.0730  -19.0330   -2.7530 N   0  0  0  0  0  0  0  0  0  0  0  0
  -16.2740  -19.0540   -4.1800 C   0  0  0  0  0  0  0  0  0  0  0  0
  -15.0330  -19.3450   -5.0530 C   0  0  0  0  0  0  0  0  0  0  0  0
  -13.9440  -19.6300   -4.5690 O   0  0  0  0  0  0  0  0  0  0  0  0
  -15.2340  -19.2610   -6.4180 N   0  0  0  0  0  0  0  0  0  0  0  0
  -16.5120  -18.8640   -7.0570 C   0  0  0  0  0  0  0  0  0  0  0  0
  -16.3090  -19.1520   -8.5630 C   0  0  0  0  0  0  0  0  0  0  0  0
  -14.8120  -19.3110   -8.6850 C   0  0  0  0  0  0  0  0  0  0  0  0
  -14.0160  -19.4030   -9.8180 C   0  0  0  0  0  0  0  0  0  0  0  0
  -12.6380  -19.5990   -9.6830 C   0  0  0  0  0  0  0  0  0  0  0  0
  -12.0950  -19.7060   -8.4030 C   0  0  0  0  0  0  0  0  0  0  0  0
  -12.8650  -19.6180   -7.2410 C   0  0  0  0  0  0  0  0  0  0  0  0
  -14.2360  -19.4110   -7.4100 C   0  0  0  0  0  0  0  0  0  0  0  0
  -15.2090  -17.9610   -2.2520 C   0  0  0  0  0  0  0  0  0  0  0  0
  -15.3660  -17.8630   -0.7350 C   0  0  0  0  0  0  0  0  0  0  0  0
  -15.0370  -19.1570   -0.1360 N   0  0  0  0  0  0  0  0  0  0  0  0
  -10.3580  -19.9590   -8.2400 Cl  0  0  0  0  0  0  0  0  0  0  0  0
  -16.2240  -22.3490   -0.2630 H   0  0  0  0  0  0  0  0  0  0  0  0
  -15.6860  -21.4550    1.1670 H   0  0  0  0  0  0  0  0  0  0  0  0
  -14.5310  -21.8130   -0.1310 H   0  0  0  0  0  0  0  0  0  0  0  0
  -16.9890  -19.9810   -0.4060 H   0  0  0  0  0  0  0  0  0  0  0  0
  -16.4880  -21.0650   -2.5180 H   0  0  0  0  0  0  0  0  0  0  0  0
  -14.7570  -20.6770   -2.3690 H   0  0  0  0  0  0  0  0  0  0  0  0
  -16.6960  -18.0860   -4.4890 H   0  0  0  0  0  0  0  0  0  0  0  0
  -17.0430  -19.8070   -4.4120 H   0  0  0  0  0  0  0  0  0  0  0  0
  -16.6980  -17.7960   -6.8820 H   0  0  0  0  0  0  0  0  0  0  0  0
  -17.3480  -19.4250   -6.6340 H   0  0  0  0  0  0  0  0  0  0  0  0
  -16.7110  -18.3450   -9.1840 H   0  0  0  0  0  0  0  0  0  0  0  0
  -16.8250  -20.0750   -8.8590 H   0  0  0  0  0  0  0  0  0  0  0  0
  -14.4560  -19.3250  -10.8090 H   0  0  0  0  0  0  0  0  0  0  0  0
  -11.9970  -19.6700  -10.5540 H   0  0  0  0  0  0  0  0  0  0  0  0
  -12.4280  -19.7030   -6.2580 H   0  0  0  0  0  0  0  0  0  0  0  0
  -15.5260  -17.0170   -2.7140 H   0  0  0  0  0  0  0  0  0  0  0  0
  -14.1510  -18.1280   -2.5020 H   0  0  0  0  0  0  0  0  0  0  0  0
  -16.3990  -17.5350   -0.5090 H   0  0  0  0  0  0  0  0  0  0  0  0
  -14.6760  -17.1060   -0.3440 H   0  0  0  0  0  0  0  0  0  0  0  0
  -15.0960  -19.0920    0.8790 H   0  0  0  0  0  0  0  0  0  0  0  0
  1  2  1  0  0  0  0
  1 21  1  0  0  0  0
  1 22  1  0  0  0  0
  1 23  1  0  0  0  0
  2  3  1  0  0  0  0
  2 19  1  0  0  0  0
  2 24  1  1  0  0  0
  3  4  1  0  0  0  0
  3 25  1  0  0  0  0
  3 26  1  0  0  0  0
  4  5  1  0  0  0  0
  4 17  1  0  0  0  0
  5  6  1  0  0  0  0
  5 27  1  0  0  0  0
  5 28  1  0  0  0  0
  6  7  2  0  0  0  0
  6  8  1  0  0  0  0
  8  9  1  0  0  0  0
  8 16  1  0  0  0  0
  9 10  1  0  0  0  0
  9 29  1  0  0  0  0
  9 30  1  0  0  0  0
 10 11  1  0  0  0  0
 10 31  1  0  0  0  0
 10 32  1  0  0  0  0
 11 12  2  0  0  0  0
 11 16  1  0  0  0  0
 12 13  1  0  0  0  0
 12 33  1  0  0  0  0
 13 14  2  0  0  0  0
 13 34  1  0  0  0  0
 14 15  1  0  0  0  0
 14 20  1  0  0  0  0
 15 16  2  0  0  0  0
 15 35  1  0  0  0  0
 17 18  1  0  0  0  0
 17 36  1  0  0  0  0
 17 37  1  0  0  0  0
 18 19  1  0  0  0  0
 18 38  1  0  0  0  0
 18 39  1  0  0  0  0
 19 40  1  0  0  0  0
M  END
$$$$
